data_test

_audit_creation_method RASPA-1.0
_audit_creation_date 2025-2-7
_audit_author_name 'Bene B'

_cell_length_a    10
_cell_length_b    11.1803
_cell_length_c    10
_cell_angle_alpha 90
_cell_angle_beta  90
_cell_angle_gamma 63.435
_cell_volume      1000

_symmetry_cell_setting          triclinic
_symmetry_space_group_name_Hall 'P 1'
_symmetry_space_group_name_H-M  'P 1'
_symmetry_Int_Tables_number     1

_symmetry_equiv_pos_as_xyz 'x,y,z'

loop_
_atom_site_label
_atom_site_type_symbol
_atom_site_fract_x
_atom_site_fract_y
_atom_site_fract_z
_atom_site_charge
Nd       Nd     0.250000000000     0.750000000000     0.250000000000    -0.5        
Nd       Nd     0.250000000000     0.500000000000     0.750000000000    -0.5        
H        H      0.000000000000     0.000000000000     0.000000000000     0          


